[General]
network = FogNoLB
#cpu-time-limit = 60s
cmdenv-config-name = FogBase
tkenv-default-config = FogBase
qtenv-default-config = FogBase
repeat = 5
sim-time-limit = 10800s
#debug-on-errors = true
# parameters of the simulation
[Config FogBase]
description = "Global scenario"
# FIXME: should be nSources = 100
FogNoLB.nSources = 100
# FIXME: should be rho = [0.2, 0.5, 0.8, 0.9]
FogNoLB.rho = 0.9
# FIXME: should be proctimeMul = [1.0, 0.01]
FogNoLB.proctimeMul = 1.0
#FogNoLB.source[*].sendInterval = exponential(2s)
#FogNoLB.source[*].suggestedTime = normal(1.67s, 0.036s)
FogNoLB.source[*].appId = 1
#FogNoLB.source[*].SLAmult = 10
#FogNoLB.source[*].realTime = true     
#FogNoLB.source[*].multiHop = false    
#FogNoLB.source[*].maxInterval = -1s
#FogNoLB.fog[*].nServers = 20
FogNoLB.nServersPerFog = 1
FogNoLB.fog[*].dispatcher.fanOut = 1
#FogNoLB.fog[*].server[*].timeSlice = 0.1s
FogNoLB.fog[*].server[*].timeSlice = -1s
FogNoLB.fog[*].server[*].timeout = -1s
#FogNoLB.fog[*].server[*].capacity = 1
FogNoLB.fog[*].server[*].fifo = true
FogNoLB.fog[*].server[*].maxServiceTime = -1s
**.vector-recording=false

[Config Fog-mul_1-rho_02_MG1]
extends=FogBase
FogNoLB.nServersPerFog = 1
FogNoLB.proctimeMul = 1.0
FogNoLB.rho = 0.2

[Config Fog-mul_1-rho_05_MG1]
extends=FogBase
FogNoLB.nServersPerFog = 1
FogNoLB.proctimeMul = 1.0
FogNoLB.rho = 0.5

[Config Fog-mul_1-rho_08_MG1]
extends=FogBase
FogNoLB.nServersPerFog = 1
FogNoLB.proctimeMul = 1.0
FogNoLB.rho = 0.8

[Config Fog-mul_1-rho_09_MG1]
extends=FogBase
FogNoLB.nServersPerFog = 1
FogNoLB.proctimeMul = 1.0
FogNoLB.rho = 0.9

[Config Fog-mul_001-rho_02_MG1]
extends=FogBase
FogNoLB.nServersPerFog = 1
FogNoLB.proctimeMul = 0.01
FogNoLB.rho = 0.2

[Config Fog-mul_001-rho_05_MG1]
extends=FogBase
FogNoLB.nServersPerFog = 1
FogNoLB.proctimeMul = 0.01
FogNoLB.rho = 0.5

[Config Fog-mul_001-rho_08_MG1]
extends=FogBase
FogNoLB.nServersPerFog = 1
FogNoLB.proctimeMul = 0.01
FogNoLB.rho = 0.8

[Config Fog-mul_001-rho_09_MG1]
extends=FogBase
FogNoLB.nServersPerFog = 1
FogNoLB.proctimeMul = 0.01
FogNoLB.rho = 0.9

[Config Fog-mul_1-rho_02_MG20]
extends=FogBase
FogNoLB.nServersPerFog = 20
FogNoLB.proctimeMul = 1.0
FogNoLB.rho = 0.2

[Config Fog-mul_1-rho_05_MG20]
extends=FogBase
FogNoLB.nServersPerFog = 20
FogNoLB.proctimeMul = 1.0
FogNoLB.rho = 0.5

[Config Fog-mul_1-rho_08_MG20]
extends=FogBase
FogNoLB.nServersPerFog = 20
FogNoLB.proctimeMul = 1.0
FogNoLB.rho = 0.8

[Config Fog-mul_1-rho_09_MG20]
extends=FogBase
FogNoLB.nServersPerFog = 20
FogNoLB.proctimeMul = 1.0
FogNoLB.rho = 0.9

[Config Fog-mul_001-rho_02_MG20]
extends=FogBase
FogNoLB.nServersPerFog = 20
FogNoLB.proctimeMul = 0.01
FogNoLB.rho = 0.2

[Config Fog-mul_001-rho_05_MG20]
extends=FogBase
FogNoLB.nServersPerFog = 20
FogNoLB.proctimeMul = 0.01
FogNoLB.rho = 0.5

[Config Fog-mul_001-rho_08_MG20]
extends=FogBase
FogNoLB.nServersPerFog = 20
FogNoLB.proctimeMul = 0.01
FogNoLB.rho = 0.8

[Config Fog-mul_001-rho_09_MG20]
extends=FogBase
FogNoLB.nServersPerFog = 20
FogNoLB.proctimeMul = 0.01
FogNoLB.rho = 0.9
