[General]
network = CloudDataCenterTS
#cpu-time-limit = 300.000000s
repeat = 1
cmdenv-config-name = MGnDanailo
tkenv-default-config = MGnDanailo
sim-time-limit = 300s
#debug-on-errors = true
# parameters of the simulation
[Config MGnBase]
**.vector-recording = false
CloudDataCenterTS.appProc[*].congCtl[*].toCongestionStatusInterval = exponential (415.000000s)
CloudDataCenterTS.appProc[*].congCtl[*].fromCongestionStatusInterval = exponential (40.000000s)
CloudDataCenterTS.appProc[*].congCtl[*].congestionMultiplier = 10.000000
CloudDataCenterTS.appProc[*].timeout = 3.0s
[Config MGnDanailo]
extends=MGnBase
# Danilo-specific config parameters
description = 'Configuration based on the output of the optimization task'
[Config MGnDanailo-1]
extends=MGnDanailo
# Danilo-specific config parameters for time 1
description = 'Configuration based on the output of the optimization task at time 1'
CloudDataCenterTS.nApps= 10
# request generation for request App (solver) 1 (simulator) 0 at time 1
CloudDataCenterTS.appProc[0].nServers=2
CloudDataCenterTS.appProc[0].source.sendInterval=exponential (0.002101s)
CloudDataCenterTS.appProc[0].source.maxInterval=-1s
CloudDataCenterTS.appProc[0].server[*].serviceTime=lognormal(-7.555886,1.805020)*1s
CloudDataCenterTS.appProc[0].server[*].maxServiceTime=0.013335s
CloudDataCenterTS.appProc[0].server[*].capacity=10
CloudDataCenterTS.appProc[0].delay[*].delay=lognormal(-2.724765,1.805020)*1s
CloudDataCenterTS.appProc[0].delay[*].maxDelay=1.671500s
# request generation for request App (solver) 2 (simulator) 1 at time 1
CloudDataCenterTS.appProc[1].nServers=3
CloudDataCenterTS.appProc[1].source.sendInterval=exponential (0.001767s)
CloudDataCenterTS.appProc[1].source.maxInterval=-1s
CloudDataCenterTS.appProc[1].server[*].serviceTime=lognormal(-7.166658,1.805020)*1s
CloudDataCenterTS.appProc[1].server[*].maxServiceTime=0.019680s
CloudDataCenterTS.appProc[1].server[*].capacity=10
CloudDataCenterTS.appProc[1].delay[*].delay=lognormal(-3.169259,1.805020)*1s
CloudDataCenterTS.appProc[1].delay[*].maxDelay=1.071680s
# request generation for request App (solver) 3 (simulator) 2 at time 1
CloudDataCenterTS.appProc[2].nServers=2
CloudDataCenterTS.appProc[2].source.sendInterval=exponential (0.002732s)
CloudDataCenterTS.appProc[2].source.maxInterval=-1s
CloudDataCenterTS.appProc[2].server[*].serviceTime=lognormal(-7.247944,1.805020)*1s
CloudDataCenterTS.appProc[2].server[*].maxServiceTime=0.018143s
CloudDataCenterTS.appProc[2].server[*].capacity=10
CloudDataCenterTS.appProc[2].delay[*].delay=lognormal(-2.381171,1.805020)*1s
CloudDataCenterTS.appProc[2].delay[*].maxDelay=2.356825s
# request generation for request App (solver) 4 (simulator) 3 at time 1
CloudDataCenterTS.appProc[3].nServers=2
CloudDataCenterTS.appProc[3].source.sendInterval=exponential (0.003003s)
CloudDataCenterTS.appProc[3].source.maxInterval=-1s
CloudDataCenterTS.appProc[3].server[*].serviceTime=lognormal(-6.998523,1.805020)*1s
CloudDataCenterTS.appProc[3].server[*].maxServiceTime=0.023283s
CloudDataCenterTS.appProc[3].server[*].capacity=10
CloudDataCenterTS.appProc[3].delay[*].delay=lognormal(-4.048684,1.805020)*1s
CloudDataCenterTS.appProc[3].delay[*].maxDelay=0.444770s
# request generation for request App (solver) 5 (simulator) 4 at time 1
CloudDataCenterTS.appProc[4].nServers=2
CloudDataCenterTS.appProc[4].source.sendInterval=exponential (0.003861s)
CloudDataCenterTS.appProc[4].source.maxInterval=-1s
CloudDataCenterTS.appProc[4].server[*].serviceTime=lognormal(-7.033439,1.805020)*1s
CloudDataCenterTS.appProc[4].server[*].maxServiceTime=0.022484s
CloudDataCenterTS.appProc[4].server[*].capacity=10
CloudDataCenterTS.appProc[4].delay[*].delay=lognormal(-2.679751,1.805020)*1s
CloudDataCenterTS.appProc[4].delay[*].maxDelay=1.748460s
# request generation for request App (solver) 6 (simulator) 5 at time 1
CloudDataCenterTS.appProc[5].nServers=1
CloudDataCenterTS.appProc[5].source.sendInterval=exponential (0.003745s)
CloudDataCenterTS.appProc[5].source.maxInterval=-1s
CloudDataCenterTS.appProc[5].server[*].serviceTime=lognormal(-7.279853,1.805020)*1s
CloudDataCenterTS.appProc[5].server[*].maxServiceTime=0.017573s
CloudDataCenterTS.appProc[5].server[*].capacity=10
CloudDataCenterTS.appProc[5].delay[*].delay=lognormal(-3.863545,1.805020)*1s
CloudDataCenterTS.appProc[5].delay[*].maxDelay=0.535230s
# request generation for request App (solver) 7 (simulator) 6 at time 1
CloudDataCenterTS.appProc[6].nServers=1
CloudDataCenterTS.appProc[6].source.sendInterval=exponential (0.003413s)
CloudDataCenterTS.appProc[6].source.maxInterval=-1s
CloudDataCenterTS.appProc[6].server[*].serviceTime=lognormal(-7.602241,1.805020)*1s
CloudDataCenterTS.appProc[6].server[*].maxServiceTime=0.012730s
CloudDataCenterTS.appProc[6].server[*].capacity=10
CloudDataCenterTS.appProc[6].delay[*].delay=lognormal(-3.591753,1.805020)*1s
CloudDataCenterTS.appProc[6].delay[*].maxDelay=0.702390s
# request generation for request App (solver) 8 (simulator) 7 at time 1
CloudDataCenterTS.appProc[7].nServers=1
CloudDataCenterTS.appProc[7].source.sendInterval=exponential (0.004184s)
CloudDataCenterTS.appProc[7].source.maxInterval=-1s
CloudDataCenterTS.appProc[7].server[*].serviceTime=lognormal(-7.240873,1.805020)*1s
CloudDataCenterTS.appProc[7].server[*].maxServiceTime=0.018272s
CloudDataCenterTS.appProc[7].server[*].capacity=10
CloudDataCenterTS.appProc[7].delay[*].delay=lognormal(-2.894517,1.805020)*1s
CloudDataCenterTS.appProc[7].delay[*].maxDelay=1.410535s
# request generation for request App (solver) 9 (simulator) 8 at time 1
CloudDataCenterTS.appProc[8].nServers=1
CloudDataCenterTS.appProc[8].source.sendInterval=exponential (0.004587s)
CloudDataCenterTS.appProc[8].source.maxInterval=-1s
CloudDataCenterTS.appProc[8].server[*].serviceTime=lognormal(-7.537992,1.805020)*1s
CloudDataCenterTS.appProc[8].server[*].maxServiceTime=0.013575s
CloudDataCenterTS.appProc[8].server[*].capacity=10
CloudDataCenterTS.appProc[8].delay[*].delay=lognormal(-4.038985,1.805020)*1s
CloudDataCenterTS.appProc[8].delay[*].maxDelay=0.449105s
# request generation for request App (solver) 10 (simulator) 9 at time 1
CloudDataCenterTS.appProc[9].nServers=2
CloudDataCenterTS.appProc[9].source.sendInterval=exponential (0.004831s)
CloudDataCenterTS.appProc[9].source.maxInterval=-1s
CloudDataCenterTS.appProc[9].server[*].serviceTime=lognormal(-6.998034,1.805020)*1s
CloudDataCenterTS.appProc[9].server[*].maxServiceTime=0.023294s
CloudDataCenterTS.appProc[9].server[*].capacity=10
CloudDataCenterTS.appProc[9].delay[*].delay=lognormal(-2.630246,1.805020)*1s
CloudDataCenterTS.appProc[9].delay[*].maxDelay=1.837195s
[Config MGnDanailo-2]
extends=MGnDanailo
# Danilo-specific config parameters for time 2
description = 'Configuration based on the output of the optimization task at time 2'
CloudDataCenterTS.nApps= 10
# request generation for request App (solver) 1 (simulator) 0 at time 2
CloudDataCenterTS.appProc[0].nServers=2
CloudDataCenterTS.appProc[0].source.sendInterval=exponential (0.002053s)
CloudDataCenterTS.appProc[0].source.maxInterval=-1s
CloudDataCenterTS.appProc[0].server[*].serviceTime=lognormal(-7.555886,1.805020)*1s
CloudDataCenterTS.appProc[0].server[*].maxServiceTime=0.013335s
CloudDataCenterTS.appProc[0].server[*].capacity=10
CloudDataCenterTS.appProc[0].delay[*].delay=lognormal(-2.724765,1.805020)*1s
CloudDataCenterTS.appProc[0].delay[*].maxDelay=1.671500s
# request generation for request App (solver) 2 (simulator) 1 at time 2
CloudDataCenterTS.appProc[1].nServers=4
CloudDataCenterTS.appProc[1].source.sendInterval=exponential (0.001757s)
CloudDataCenterTS.appProc[1].source.maxInterval=-1s
CloudDataCenterTS.appProc[1].server[*].serviceTime=lognormal(-7.166658,1.805020)*1s
CloudDataCenterTS.appProc[1].server[*].maxServiceTime=0.019680s
CloudDataCenterTS.appProc[1].server[*].capacity=10
CloudDataCenterTS.appProc[1].delay[*].delay=lognormal(-3.169259,1.805020)*1s
CloudDataCenterTS.appProc[1].delay[*].maxDelay=1.071680s
# request generation for request App (solver) 3 (simulator) 2 at time 2
CloudDataCenterTS.appProc[2].nServers=2
CloudDataCenterTS.appProc[2].source.sendInterval=exponential (0.002710s)
CloudDataCenterTS.appProc[2].source.maxInterval=-1s
CloudDataCenterTS.appProc[2].server[*].serviceTime=lognormal(-7.247944,1.805020)*1s
CloudDataCenterTS.appProc[2].server[*].maxServiceTime=0.018143s
CloudDataCenterTS.appProc[2].server[*].capacity=10
CloudDataCenterTS.appProc[2].delay[*].delay=lognormal(-2.381171,1.805020)*1s
CloudDataCenterTS.appProc[2].delay[*].maxDelay=2.356825s
# request generation for request App (solver) 4 (simulator) 3 at time 2
CloudDataCenterTS.appProc[3].nServers=2
CloudDataCenterTS.appProc[3].source.sendInterval=exponential (0.003012s)
CloudDataCenterTS.appProc[3].source.maxInterval=-1s
CloudDataCenterTS.appProc[3].server[*].serviceTime=lognormal(-6.998523,1.805020)*1s
CloudDataCenterTS.appProc[3].server[*].maxServiceTime=0.023283s
CloudDataCenterTS.appProc[3].server[*].capacity=10
CloudDataCenterTS.appProc[3].delay[*].delay=lognormal(-4.048684,1.805020)*1s
CloudDataCenterTS.appProc[3].delay[*].maxDelay=0.444770s
# request generation for request App (solver) 5 (simulator) 4 at time 2
CloudDataCenterTS.appProc[4].nServers=2
CloudDataCenterTS.appProc[4].source.sendInterval=exponential (0.004032s)
CloudDataCenterTS.appProc[4].source.maxInterval=-1s
CloudDataCenterTS.appProc[4].server[*].serviceTime=lognormal(-7.033439,1.805020)*1s
CloudDataCenterTS.appProc[4].server[*].maxServiceTime=0.022484s
CloudDataCenterTS.appProc[4].server[*].capacity=10
CloudDataCenterTS.appProc[4].delay[*].delay=lognormal(-2.679751,1.805020)*1s
CloudDataCenterTS.appProc[4].delay[*].maxDelay=1.748460s
# request generation for request App (solver) 6 (simulator) 5 at time 2
CloudDataCenterTS.appProc[5].nServers=2
CloudDataCenterTS.appProc[5].source.sendInterval=exponential (0.003861s)
CloudDataCenterTS.appProc[5].source.maxInterval=-1s
CloudDataCenterTS.appProc[5].server[*].serviceTime=lognormal(-7.279853,1.805020)*1s
CloudDataCenterTS.appProc[5].server[*].maxServiceTime=0.017573s
CloudDataCenterTS.appProc[5].server[*].capacity=10
CloudDataCenterTS.appProc[5].delay[*].delay=lognormal(-3.863545,1.805020)*1s
CloudDataCenterTS.appProc[5].delay[*].maxDelay=0.535230s
# request generation for request App (solver) 7 (simulator) 6 at time 2
CloudDataCenterTS.appProc[6].nServers=1
CloudDataCenterTS.appProc[6].source.sendInterval=exponential (0.003460s)
CloudDataCenterTS.appProc[6].source.maxInterval=-1s
CloudDataCenterTS.appProc[6].server[*].serviceTime=lognormal(-7.602241,1.805020)*1s
CloudDataCenterTS.appProc[6].server[*].maxServiceTime=0.012730s
CloudDataCenterTS.appProc[6].server[*].capacity=10
CloudDataCenterTS.appProc[6].delay[*].delay=lognormal(-3.591753,1.805020)*1s
CloudDataCenterTS.appProc[6].delay[*].maxDelay=0.702390s
# request generation for request App (solver) 8 (simulator) 7 at time 2
CloudDataCenterTS.appProc[7].nServers=2
CloudDataCenterTS.appProc[7].source.sendInterval=exponential (0.004167s)
CloudDataCenterTS.appProc[7].source.maxInterval=-1s
CloudDataCenterTS.appProc[7].server[*].serviceTime=lognormal(-7.240873,1.805020)*1s
CloudDataCenterTS.appProc[7].server[*].maxServiceTime=0.018272s
CloudDataCenterTS.appProc[7].server[*].capacity=10
CloudDataCenterTS.appProc[7].delay[*].delay=lognormal(-2.894517,1.805020)*1s
CloudDataCenterTS.appProc[7].delay[*].maxDelay=1.410535s
# request generation for request App (solver) 9 (simulator) 8 at time 2
CloudDataCenterTS.appProc[8].nServers=1
CloudDataCenterTS.appProc[8].source.sendInterval=exponential (0.004545s)
CloudDataCenterTS.appProc[8].source.maxInterval=-1s
CloudDataCenterTS.appProc[8].server[*].serviceTime=lognormal(-7.537992,1.805020)*1s
CloudDataCenterTS.appProc[8].server[*].maxServiceTime=0.013575s
CloudDataCenterTS.appProc[8].server[*].capacity=10
CloudDataCenterTS.appProc[8].delay[*].delay=lognormal(-4.038985,1.805020)*1s
CloudDataCenterTS.appProc[8].delay[*].maxDelay=0.449105s
# request generation for request App (solver) 10 (simulator) 9 at time 2
CloudDataCenterTS.appProc[9].nServers=2
CloudDataCenterTS.appProc[9].source.sendInterval=exponential (0.004831s)
CloudDataCenterTS.appProc[9].source.maxInterval=-1s
CloudDataCenterTS.appProc[9].server[*].serviceTime=lognormal(-6.998034,1.805020)*1s
CloudDataCenterTS.appProc[9].server[*].maxServiceTime=0.023294s
CloudDataCenterTS.appProc[9].server[*].capacity=10
CloudDataCenterTS.appProc[9].delay[*].delay=lognormal(-2.630246,1.805020)*1s
CloudDataCenterTS.appProc[9].delay[*].maxDelay=1.837195s
[Config MGnDanailo-3]
extends=MGnDanailo
# Danilo-specific config parameters for time 3
description = 'Configuration based on the output of the optimization task at time 3'
CloudDataCenterTS.nApps= 10
# request generation for request App (solver) 1 (simulator) 0 at time 3
CloudDataCenterTS.appProc[0].nServers=2
CloudDataCenterTS.appProc[0].source.sendInterval=exponential (0.002075s)
CloudDataCenterTS.appProc[0].source.maxInterval=-1s
CloudDataCenterTS.appProc[0].server[*].serviceTime=lognormal(-7.555886,1.805020)*1s
CloudDataCenterTS.appProc[0].server[*].maxServiceTime=0.013335s
CloudDataCenterTS.appProc[0].server[*].capacity=10
CloudDataCenterTS.appProc[0].delay[*].delay=lognormal(-2.724765,1.805020)*1s
CloudDataCenterTS.appProc[0].delay[*].maxDelay=1.671500s
# request generation for request App (solver) 2 (simulator) 1 at time 3
CloudDataCenterTS.appProc[1].nServers=4
CloudDataCenterTS.appProc[1].source.sendInterval=exponential (0.001786s)
CloudDataCenterTS.appProc[1].source.maxInterval=-1s
CloudDataCenterTS.appProc[1].server[*].serviceTime=lognormal(-7.166658,1.805020)*1s
CloudDataCenterTS.appProc[1].server[*].maxServiceTime=0.019680s
CloudDataCenterTS.appProc[1].server[*].capacity=10
CloudDataCenterTS.appProc[1].delay[*].delay=lognormal(-3.169259,1.805020)*1s
CloudDataCenterTS.appProc[1].delay[*].maxDelay=1.071680s
# request generation for request App (solver) 3 (simulator) 2 at time 3
CloudDataCenterTS.appProc[2].nServers=2
CloudDataCenterTS.appProc[2].source.sendInterval=exponential (0.002674s)
CloudDataCenterTS.appProc[2].source.maxInterval=-1s
CloudDataCenterTS.appProc[2].server[*].serviceTime=lognormal(-7.247944,1.805020)*1s
CloudDataCenterTS.appProc[2].server[*].maxServiceTime=0.018143s
CloudDataCenterTS.appProc[2].server[*].capacity=10
CloudDataCenterTS.appProc[2].delay[*].delay=lognormal(-2.381171,1.805020)*1s
CloudDataCenterTS.appProc[2].delay[*].maxDelay=2.356825s
# request generation for request App (solver) 4 (simulator) 3 at time 3
CloudDataCenterTS.appProc[3].nServers=2
CloudDataCenterTS.appProc[3].source.sendInterval=exponential (0.003058s)
CloudDataCenterTS.appProc[3].source.maxInterval=-1s
CloudDataCenterTS.appProc[3].server[*].serviceTime=lognormal(-6.998523,1.805020)*1s
CloudDataCenterTS.appProc[3].server[*].maxServiceTime=0.023283s
CloudDataCenterTS.appProc[3].server[*].capacity=10
CloudDataCenterTS.appProc[3].delay[*].delay=lognormal(-4.048684,1.805020)*1s
CloudDataCenterTS.appProc[3].delay[*].maxDelay=0.444770s
# request generation for request App (solver) 5 (simulator) 4 at time 3
CloudDataCenterTS.appProc[4].nServers=2
CloudDataCenterTS.appProc[4].source.sendInterval=exponential (0.004032s)
CloudDataCenterTS.appProc[4].source.maxInterval=-1s
CloudDataCenterTS.appProc[4].server[*].serviceTime=lognormal(-7.033439,1.805020)*1s
CloudDataCenterTS.appProc[4].server[*].maxServiceTime=0.022484s
CloudDataCenterTS.appProc[4].server[*].capacity=10
CloudDataCenterTS.appProc[4].delay[*].delay=lognormal(-2.679751,1.805020)*1s
CloudDataCenterTS.appProc[4].delay[*].maxDelay=1.748460s
# request generation for request App (solver) 6 (simulator) 5 at time 3
CloudDataCenterTS.appProc[5].nServers=2
CloudDataCenterTS.appProc[5].source.sendInterval=exponential (0.003937s)
CloudDataCenterTS.appProc[5].source.maxInterval=-1s
CloudDataCenterTS.appProc[5].server[*].serviceTime=lognormal(-7.279853,1.805020)*1s
CloudDataCenterTS.appProc[5].server[*].maxServiceTime=0.017573s
CloudDataCenterTS.appProc[5].server[*].capacity=10
CloudDataCenterTS.appProc[5].delay[*].delay=lognormal(-3.863545,1.805020)*1s
CloudDataCenterTS.appProc[5].delay[*].maxDelay=0.535230s
# request generation for request App (solver) 7 (simulator) 6 at time 3
CloudDataCenterTS.appProc[6].nServers=1
CloudDataCenterTS.appProc[6].source.sendInterval=exponential (0.003425s)
CloudDataCenterTS.appProc[6].source.maxInterval=-1s
CloudDataCenterTS.appProc[6].server[*].serviceTime=lognormal(-7.602241,1.805020)*1s
CloudDataCenterTS.appProc[6].server[*].maxServiceTime=0.012730s
CloudDataCenterTS.appProc[6].server[*].capacity=10
CloudDataCenterTS.appProc[6].delay[*].delay=lognormal(-3.591753,1.805020)*1s
CloudDataCenterTS.appProc[6].delay[*].maxDelay=0.702390s
# request generation for request App (solver) 8 (simulator) 7 at time 3
CloudDataCenterTS.appProc[7].nServers=2
CloudDataCenterTS.appProc[7].source.sendInterval=exponential (0.004115s)
CloudDataCenterTS.appProc[7].source.maxInterval=-1s
CloudDataCenterTS.appProc[7].server[*].serviceTime=lognormal(-7.240873,1.805020)*1s
CloudDataCenterTS.appProc[7].server[*].maxServiceTime=0.018272s
CloudDataCenterTS.appProc[7].server[*].capacity=10
CloudDataCenterTS.appProc[7].delay[*].delay=lognormal(-2.894517,1.805020)*1s
CloudDataCenterTS.appProc[7].delay[*].maxDelay=1.410535s
# request generation for request App (solver) 9 (simulator) 8 at time 3
CloudDataCenterTS.appProc[8].nServers=1
CloudDataCenterTS.appProc[8].source.sendInterval=exponential (0.004545s)
CloudDataCenterTS.appProc[8].source.maxInterval=-1s
CloudDataCenterTS.appProc[8].server[*].serviceTime=lognormal(-7.537992,1.805020)*1s
CloudDataCenterTS.appProc[8].server[*].maxServiceTime=0.013575s
CloudDataCenterTS.appProc[8].server[*].capacity=10
CloudDataCenterTS.appProc[8].delay[*].delay=lognormal(-4.038985,1.805020)*1s
CloudDataCenterTS.appProc[8].delay[*].maxDelay=0.449105s
# request generation for request App (solver) 10 (simulator) 9 at time 3
CloudDataCenterTS.appProc[9].nServers=2
CloudDataCenterTS.appProc[9].source.sendInterval=exponential (0.004902s)
CloudDataCenterTS.appProc[9].source.maxInterval=-1s
CloudDataCenterTS.appProc[9].server[*].serviceTime=lognormal(-6.998034,1.805020)*1s
CloudDataCenterTS.appProc[9].server[*].maxServiceTime=0.023294s
CloudDataCenterTS.appProc[9].server[*].capacity=10
CloudDataCenterTS.appProc[9].delay[*].delay=lognormal(-2.630246,1.805020)*1s
CloudDataCenterTS.appProc[9].delay[*].maxDelay=1.837195s
[Config MGnDanailo-4]
extends=MGnDanailo
# Danilo-specific config parameters for time 4
description = 'Configuration based on the output of the optimization task at time 4'
CloudDataCenterTS.nApps= 10
# request generation for request App (solver) 1 (simulator) 0 at time 4
CloudDataCenterTS.appProc[0].nServers=2
CloudDataCenterTS.appProc[0].source.sendInterval=exponential (0.002058s)
CloudDataCenterTS.appProc[0].source.maxInterval=-1s
CloudDataCenterTS.appProc[0].server[*].serviceTime=lognormal(-7.555886,1.805020)*1s
CloudDataCenterTS.appProc[0].server[*].maxServiceTime=0.013335s
CloudDataCenterTS.appProc[0].server[*].capacity=10
CloudDataCenterTS.appProc[0].delay[*].delay=lognormal(-2.724765,1.805020)*1s
CloudDataCenterTS.appProc[0].delay[*].maxDelay=1.671500s
# request generation for request App (solver) 2 (simulator) 1 at time 4
CloudDataCenterTS.appProc[1].nServers=4
CloudDataCenterTS.appProc[1].source.sendInterval=exponential (0.001754s)
CloudDataCenterTS.appProc[1].source.maxInterval=-1s
CloudDataCenterTS.appProc[1].server[*].serviceTime=lognormal(-7.166658,1.805020)*1s
CloudDataCenterTS.appProc[1].server[*].maxServiceTime=0.019680s
CloudDataCenterTS.appProc[1].server[*].capacity=10
CloudDataCenterTS.appProc[1].delay[*].delay=lognormal(-3.169259,1.805020)*1s
CloudDataCenterTS.appProc[1].delay[*].maxDelay=1.071680s
# request generation for request App (solver) 3 (simulator) 2 at time 4
CloudDataCenterTS.appProc[2].nServers=2
CloudDataCenterTS.appProc[2].source.sendInterval=exponential (0.002681s)
CloudDataCenterTS.appProc[2].source.maxInterval=-1s
CloudDataCenterTS.appProc[2].server[*].serviceTime=lognormal(-7.247944,1.805020)*1s
CloudDataCenterTS.appProc[2].server[*].maxServiceTime=0.018143s
CloudDataCenterTS.appProc[2].server[*].capacity=10
CloudDataCenterTS.appProc[2].delay[*].delay=lognormal(-2.381171,1.805020)*1s
CloudDataCenterTS.appProc[2].delay[*].maxDelay=2.356825s
# request generation for request App (solver) 4 (simulator) 3 at time 4
CloudDataCenterTS.appProc[3].nServers=2
CloudDataCenterTS.appProc[3].source.sendInterval=exponential (0.003448s)
CloudDataCenterTS.appProc[3].source.maxInterval=-1s
CloudDataCenterTS.appProc[3].server[*].serviceTime=lognormal(-6.998523,1.805020)*1s
CloudDataCenterTS.appProc[3].server[*].maxServiceTime=0.023283s
CloudDataCenterTS.appProc[3].server[*].capacity=10
CloudDataCenterTS.appProc[3].delay[*].delay=lognormal(-4.048684,1.805020)*1s
CloudDataCenterTS.appProc[3].delay[*].maxDelay=0.444770s
# request generation for request App (solver) 5 (simulator) 4 at time 4
CloudDataCenterTS.appProc[4].nServers=2
CloudDataCenterTS.appProc[4].source.sendInterval=exponential (0.003953s)
CloudDataCenterTS.appProc[4].source.maxInterval=-1s
CloudDataCenterTS.appProc[4].server[*].serviceTime=lognormal(-7.033439,1.805020)*1s
CloudDataCenterTS.appProc[4].server[*].maxServiceTime=0.022484s
CloudDataCenterTS.appProc[4].server[*].capacity=10
CloudDataCenterTS.appProc[4].delay[*].delay=lognormal(-2.679751,1.805020)*1s
CloudDataCenterTS.appProc[4].delay[*].maxDelay=1.748460s
# request generation for request App (solver) 6 (simulator) 5 at time 4
CloudDataCenterTS.appProc[5].nServers=2
CloudDataCenterTS.appProc[5].source.sendInterval=exponential (0.003788s)
CloudDataCenterTS.appProc[5].source.maxInterval=-1s
CloudDataCenterTS.appProc[5].server[*].serviceTime=lognormal(-7.279853,1.805020)*1s
CloudDataCenterTS.appProc[5].server[*].maxServiceTime=0.017573s
CloudDataCenterTS.appProc[5].server[*].capacity=10
CloudDataCenterTS.appProc[5].delay[*].delay=lognormal(-3.863545,1.805020)*1s
CloudDataCenterTS.appProc[5].delay[*].maxDelay=0.535230s
# request generation for request App (solver) 7 (simulator) 6 at time 4
CloudDataCenterTS.appProc[6].nServers=1
CloudDataCenterTS.appProc[6].source.sendInterval=exponential (0.003344s)
CloudDataCenterTS.appProc[6].source.maxInterval=-1s
CloudDataCenterTS.appProc[6].server[*].serviceTime=lognormal(-7.602241,1.805020)*1s
CloudDataCenterTS.appProc[6].server[*].maxServiceTime=0.012730s
CloudDataCenterTS.appProc[6].server[*].capacity=10
CloudDataCenterTS.appProc[6].delay[*].delay=lognormal(-3.591753,1.805020)*1s
CloudDataCenterTS.appProc[6].delay[*].maxDelay=0.702390s
# request generation for request App (solver) 8 (simulator) 7 at time 4
CloudDataCenterTS.appProc[7].nServers=2
CloudDataCenterTS.appProc[7].source.sendInterval=exponential (0.004310s)
CloudDataCenterTS.appProc[7].source.maxInterval=-1s
CloudDataCenterTS.appProc[7].server[*].serviceTime=lognormal(-7.240873,1.805020)*1s
CloudDataCenterTS.appProc[7].server[*].maxServiceTime=0.018272s
CloudDataCenterTS.appProc[7].server[*].capacity=10
CloudDataCenterTS.appProc[7].delay[*].delay=lognormal(-2.894517,1.805020)*1s
CloudDataCenterTS.appProc[7].delay[*].maxDelay=1.410535s
# request generation for request App (solver) 9 (simulator) 8 at time 4
CloudDataCenterTS.appProc[8].nServers=1
CloudDataCenterTS.appProc[8].source.sendInterval=exponential (0.004587s)
CloudDataCenterTS.appProc[8].source.maxInterval=-1s
CloudDataCenterTS.appProc[8].server[*].serviceTime=lognormal(-7.537992,1.805020)*1s
CloudDataCenterTS.appProc[8].server[*].maxServiceTime=0.013575s
CloudDataCenterTS.appProc[8].server[*].capacity=10
CloudDataCenterTS.appProc[8].delay[*].delay=lognormal(-4.038985,1.805020)*1s
CloudDataCenterTS.appProc[8].delay[*].maxDelay=0.449105s
# request generation for request App (solver) 10 (simulator) 9 at time 4
CloudDataCenterTS.appProc[9].nServers=2
CloudDataCenterTS.appProc[9].source.sendInterval=exponential (0.004926s)
CloudDataCenterTS.appProc[9].source.maxInterval=-1s
CloudDataCenterTS.appProc[9].server[*].serviceTime=lognormal(-6.998034,1.805020)*1s
CloudDataCenterTS.appProc[9].server[*].maxServiceTime=0.023294s
CloudDataCenterTS.appProc[9].server[*].capacity=10
CloudDataCenterTS.appProc[9].delay[*].delay=lognormal(-2.630246,1.805020)*1s
CloudDataCenterTS.appProc[9].delay[*].maxDelay=1.837195s
[Config MGnDanailo-5]
extends=MGnDanailo
# Danilo-specific config parameters for time 5
description = 'Configuration based on the output of the optimization task at time 5'
CloudDataCenterTS.nApps= 10
# request generation for request App (solver) 1 (simulator) 0 at time 5
CloudDataCenterTS.appProc[0].nServers=2
CloudDataCenterTS.appProc[0].source.sendInterval=exponential (0.002075s)
CloudDataCenterTS.appProc[0].source.maxInterval=-1s
CloudDataCenterTS.appProc[0].server[*].serviceTime=lognormal(-7.555886,1.805020)*1s
CloudDataCenterTS.appProc[0].server[*].maxServiceTime=0.013335s
CloudDataCenterTS.appProc[0].server[*].capacity=10
CloudDataCenterTS.appProc[0].delay[*].delay=lognormal(-2.724765,1.805020)*1s
CloudDataCenterTS.appProc[0].delay[*].maxDelay=1.671500s
# request generation for request App (solver) 2 (simulator) 1 at time 5
CloudDataCenterTS.appProc[1].nServers=4
CloudDataCenterTS.appProc[1].source.sendInterval=exponential (0.001767s)
CloudDataCenterTS.appProc[1].source.maxInterval=-1s
CloudDataCenterTS.appProc[1].server[*].serviceTime=lognormal(-7.166658,1.805020)*1s
CloudDataCenterTS.appProc[1].server[*].maxServiceTime=0.019680s
CloudDataCenterTS.appProc[1].server[*].capacity=10
CloudDataCenterTS.appProc[1].delay[*].delay=lognormal(-3.169259,1.805020)*1s
CloudDataCenterTS.appProc[1].delay[*].maxDelay=1.071680s
# request generation for request App (solver) 3 (simulator) 2 at time 5
CloudDataCenterTS.appProc[2].nServers=2
CloudDataCenterTS.appProc[2].source.sendInterval=exponential (0.002755s)
CloudDataCenterTS.appProc[2].source.maxInterval=-1s
CloudDataCenterTS.appProc[2].server[*].serviceTime=lognormal(-7.247944,1.805020)*1s
CloudDataCenterTS.appProc[2].server[*].maxServiceTime=0.018143s
CloudDataCenterTS.appProc[2].server[*].capacity=10
CloudDataCenterTS.appProc[2].delay[*].delay=lognormal(-2.381171,1.805020)*1s
CloudDataCenterTS.appProc[2].delay[*].maxDelay=2.356825s
# request generation for request App (solver) 4 (simulator) 3 at time 5
CloudDataCenterTS.appProc[3].nServers=2
CloudDataCenterTS.appProc[3].source.sendInterval=exponential (0.003390s)
CloudDataCenterTS.appProc[3].source.maxInterval=-1s
CloudDataCenterTS.appProc[3].server[*].serviceTime=lognormal(-6.998523,1.805020)*1s
CloudDataCenterTS.appProc[3].server[*].maxServiceTime=0.023283s
CloudDataCenterTS.appProc[3].server[*].capacity=10
CloudDataCenterTS.appProc[3].delay[*].delay=lognormal(-4.048684,1.805020)*1s
CloudDataCenterTS.appProc[3].delay[*].maxDelay=0.444770s
# request generation for request App (solver) 5 (simulator) 4 at time 5
CloudDataCenterTS.appProc[4].nServers=2
CloudDataCenterTS.appProc[4].source.sendInterval=exponential (0.003922s)
CloudDataCenterTS.appProc[4].source.maxInterval=-1s
CloudDataCenterTS.appProc[4].server[*].serviceTime=lognormal(-7.033439,1.805020)*1s
CloudDataCenterTS.appProc[4].server[*].maxServiceTime=0.022484s
CloudDataCenterTS.appProc[4].server[*].capacity=10
CloudDataCenterTS.appProc[4].delay[*].delay=lognormal(-2.679751,1.805020)*1s
CloudDataCenterTS.appProc[4].delay[*].maxDelay=1.748460s
# request generation for request App (solver) 6 (simulator) 5 at time 5
CloudDataCenterTS.appProc[5].nServers=2
CloudDataCenterTS.appProc[5].source.sendInterval=exponential (0.003846s)
CloudDataCenterTS.appProc[5].source.maxInterval=-1s
CloudDataCenterTS.appProc[5].server[*].serviceTime=lognormal(-7.279853,1.805020)*1s
CloudDataCenterTS.appProc[5].server[*].maxServiceTime=0.017573s
CloudDataCenterTS.appProc[5].server[*].capacity=10
CloudDataCenterTS.appProc[5].delay[*].delay=lognormal(-3.863545,1.805020)*1s
CloudDataCenterTS.appProc[5].delay[*].maxDelay=0.535230s
# request generation for request App (solver) 7 (simulator) 6 at time 5
CloudDataCenterTS.appProc[6].nServers=1
CloudDataCenterTS.appProc[6].source.sendInterval=exponential (0.003367s)
CloudDataCenterTS.appProc[6].source.maxInterval=-1s
CloudDataCenterTS.appProc[6].server[*].serviceTime=lognormal(-7.602241,1.805020)*1s
CloudDataCenterTS.appProc[6].server[*].maxServiceTime=0.012730s
CloudDataCenterTS.appProc[6].server[*].capacity=10
CloudDataCenterTS.appProc[6].delay[*].delay=lognormal(-3.591753,1.805020)*1s
CloudDataCenterTS.appProc[6].delay[*].maxDelay=0.702390s
# request generation for request App (solver) 8 (simulator) 7 at time 5
CloudDataCenterTS.appProc[7].nServers=2
CloudDataCenterTS.appProc[7].source.sendInterval=exponential (0.004115s)
CloudDataCenterTS.appProc[7].source.maxInterval=-1s
CloudDataCenterTS.appProc[7].server[*].serviceTime=lognormal(-7.240873,1.805020)*1s
CloudDataCenterTS.appProc[7].server[*].maxServiceTime=0.018272s
CloudDataCenterTS.appProc[7].server[*].capacity=10
CloudDataCenterTS.appProc[7].delay[*].delay=lognormal(-2.894517,1.805020)*1s
CloudDataCenterTS.appProc[7].delay[*].maxDelay=1.410535s
# request generation for request App (solver) 9 (simulator) 8 at time 5
CloudDataCenterTS.appProc[8].nServers=1
CloudDataCenterTS.appProc[8].source.sendInterval=exponential (0.004651s)
CloudDataCenterTS.appProc[8].source.maxInterval=-1s
CloudDataCenterTS.appProc[8].server[*].serviceTime=lognormal(-7.537992,1.805020)*1s
CloudDataCenterTS.appProc[8].server[*].maxServiceTime=0.013575s