[General]
network = TestServer
sim-time-limit = 3600s
tkenv-default-config = Timeshared
**.source.appId = 0
**.sink.maxApps = 1
**.source.sendInterval = exponential(5s)
**.source.maxInterval = -1s
**.server.serviceTime = exponential(4s)
**.server.maxServiceTime = -1s
**.congestionCtl.toCongestionStatusInterval = -1s
**.congestionCtl.fromCongestionStatusInterval = -1s
repeat = 5

[Config NoTimeShared]
**.server.timeSlice = -1s

[Config TimeShared]
**.server.timeSlice = 0.1s

