[General]
network = fog.simulations.Test2stateDelay
sim-time-limit = 2880s

[Config TestDelay2State]
**.source.appId = 0
**.sink.maxApps = 1
**.source.sendInterval = 5s
**.source.maxInterval = -1s
**.congestionCtl.fromCongestionStatusInterval = exponential(5s)
**.congestionCtl.toCongestionStatusInterval = exponential(5s)
**.delay.delay = 3s
**.delay.maxDelay = -1s

[Config TestDelayTimeout]
**.source.appId = 0
**.sink.maxApps = 1
**.source.sendInterval = exponential(5s)
**.source.maxInterval = -1s
**.congestionCtl.fromCongestionStatusInterval = -1s
**.congestionCtl.toCongestionStatusInterval = -1s
**.delay.delay = exponential(5s)
**.delay.maxDelay = -1s
**.delay.timeout = 5s

