[General]
network = fog.simulations.Test2stateApp
sim-time-limit = 2880s

[Config TestApp2State]
**.source.appId = 0
**.sink.maxApps = 1
**.source.sendInterval = 5s
**.source.maxInterval = -1s
**.congestionCtl.fromCongestionStatusInterval = exponential(5s)
**.congestionCtl.toCongestionStatusInterval = exponential(5s)
**.server.capacity = -1
**.server.serviceTime = 3s
**.server.maxServiceTime = -1s

[Config TestAppTimeout]
**.source.appId = 0
**.sink.maxApps = 1
**.source.sendInterval = exponential(5s)
**.source.maxInterval = -1s
**.congestionCtl.fromCongestionStatusInterval = -1s
**.congestionCtl.toCongestionStatusInterval = -1s
**.server.capacity = -1
**.server.serviceTime = exponential(3s)
**.server.timeout = 3s
**.server.maxServiceTime = -1s
